[TITLE]
;;Project Title/Notes
INP file created on 2025/3/25 16:00:29 by Kato with inpPINS version 0.0.3.0
Title/Notes:

[OPTIONS]
;;Option             Value
FLOW_UNITS           CMS
INFILTRATION         HORTON
FLOW_ROUTING         DYNWAVE
LINK_OFFSETS         DEPTH
MIN_SLOPE            0
ALLOW_PONDING        NO
SKIP_STEADY_STATE    NO

START_DATE           03/18/2025
START_TIME           00:00:00
REPORT_START_DATE    03/18/2025
REPORT_START_TIME    00:00:00
END_DATE             03/18/2025
END_TIME             02:00:00
SWEEP_START          01/01
SWEEP_END            12/31
DRY_DAYS             0
REPORT_STEP          00:05:00
WET_STEP             00:05:00
DRY_STEP             01:00:00
ROUTING_STEP         0:00:10 
RULE_STEP            00:00:00

INERTIAL_DAMPING     PARTIAL
NORMAL_FLOW_LIMITED  BOTH
FORCE_MAIN_EQUATION  H-W
VARIABLE_STEP        0.75
LENGTHENING_STEP     0
MIN_SURFAREA         1.167
MAX_TRIALS           8
HEAD_TOLERANCE       0.0015
SYS_FLOW_TOL         5
LAT_FLOW_TOL         5
MINIMUM_STEP         0.5
THREADS              1

[EVAPORATION]
;;Data Source    Parameters
;;-------------- ----------------
CONSTANT         0.0
DRY_ONLY         NO

[RAINGAGES]
;;Name           Format    Interval SCF      Source    
;;-------------- --------- ------ ------ ----------
1                INTENSITY 0:05     1.0      FILE       "P1.dat"         1          MM   

[SUBCATCHMENTS]
;;Name           Rain Gage        Outlet           Area     %Imperv  Width    %Slope   CurbLen  SnowPack        
;;-------------- ---------------- ---------------- -------- -------- -------- -------- -------- ----------------
1                1                PSYS1289523      0.758951750732 65       46.1744038901 3.31567027801 0                        
2                1                PSYS1289765      0.769484276129 10       49.7640226158 3.48524683985 0                        
3                1                PSYS1289527      0.0454470704529 85       15.6461737377 4.24185883999 0                        
4                1                PSYS1289760      0.705097677175 10       58.9599375791 2.1850894945 0                        
5                1                PSYS1289762      0.161396642742 10       15.5542773575 1.65956560373 0                        
6                1                PSYS1289521      0.0174522805083 85       9.81841652774 3.14847826958 0                        
7                1                PSYS1289524      0.237307766648 85       25.7642512735 3.57500673192 0                        
8                1                PSYS1289526      0.132435101455 85       20.8552610122 3.20434412956 0                        
9                1                PSYS1289522      0.0359941963104 85       20.2533416868 1.44065968196 0                        
10               1                PSYS1289764      0.0387731145562 85       21.8170558686 2.5229279995 0                        
11               1                PSYS1289525      0.0388136593399 85       21.2502761834 2.57020918528 0                        
12               1                PSYS1271455      0.655088959043 10       42.3658762364 5.95887486818 0                        
13               1                PSYS1289766      0.281303290489 10       19.7618846403 1.98058140874 0                        
14               1                PSYS1289770      0.439570676223 10       36.6876663045 0.589606046677 0                        
15               1                PSYS1271429      0.352947035384 10       28.5974281119 1.8769538289 0                        
16               1                PSYS1289768      0.393784601187 10       28.3791740468 1.18171541587 0                        
17               1                PSYS1271432      0.305635187901 10       23.2698129776 3.52345163682 0                        
18               1                PSYS1271433      0.0109836753528 85       6.92673328942 3.23956561089 0                        
19               1                PSYS1271436      0.0123346673667 85       6.23882580703 4.10929298401 0                        
20               1                PSYS1271431      0.0601090016024 85       25.2199655998 4.62906948725 0                        
21               1                PSYS1271430      0.012836041224 85       7.11408844982 4.10929298401 0                        
22               1                PSYS1271437      0.0600456981546 85       23.6306787326 1.5277338028 0                        
23               1                PSYS1271823      0.302663170251 65       29.064501624 4.84484218061 0                        
24               1                PSYS1271828      0.0653183239334 85       27.2437110076 6.19835102558 0                        
25               1                PSYS1271825      0.0612113102196 85       25.5307148217 5.9847779274 0                        
26               1                PSYS1289517      0.503916084425 85       37.452641054 1.15982608 0                        
27               1                PSYS1271451      0.00817413019506 10       8.22411599045 2.41577339172 0                        
28               1                PSYS1271457      0.0104438391579 85       3.30236227565 2.29193973541 0                        
29               1                PSYS1271452      0.0271517895459 10       5.37538516775 3.05465316772 0                        
30               1                PSYS1271450      0.0139851263319 85       9.31878421246 3.493082 0                        
31               1                PSYS1271456      0.0429906811566 85       13.7211154419 1.13914402326 0                        
32               1                PSYS1271454      0.0589286591637 10       7.46324248261 4.89696521759 0                        
33               1                PSYS1271458      0.077915916167 85       19.5231818722 2.14613381028 0                        
34               1                PSYS1271810      0.108745210054 85       24.9055349459 0.815779856273 0                        
35               1                PSYS1271453      0.170518654347 10       17.8606703497 3.65462793907 0                        
36               1                PSYS1271814      0.0567243938906 85       15.2424885291 2.57508039474 0                        
37               1                PSYS1271811      0.0521885372646 85       15.762921102 1.39392479261 0                        
38               1                PSYS1271822      0.221754324635 65       25.1994110423 1.35091789202 0                        
39               1                PSYS1271829      0.358688774124 85       26.5401202413 4.85594367981 0                        
40               1                PSYS1271821      0.0387341072944 85       20.344975985 0.824352780978 0                        
41               1                PSYS1271434      0.0536458049115 85       23.3776053764 1.30427352587 0                        
42               1                PSYS1271438      0.0540393520768 85       21.2668591186 2.75866955519 0                        
43               1                PSYS1271439      0.0107013659177 85       5.54805657112 3.05465316772 0                        
44               1                PSYS1271817      0.00716677576365 85       5.36665640339 2.29193973541 0                        
45               1                PSYS1271813      0.0386887575774 85       15.2532468438 3.81628465652 0                        
46               1                PSYS1271809      0.0526317142985 85       16.374686307 0        0                        
47               1                PSYS1271818      0.0494331139553 85       19.4541512695 1.74232486884 0                        
48               1                PSYS1271820      0.00335938238482 85       2.64424421728 1.521373 0                        
49               1                PSYS1271819      0.0900981241541 65       12.7039318744 2.21839263439 0                        
50               1                PSYS1271812      0.0929424526458 85       18.3439921274 4.12785083055 0                        
51               1                PSYS1271824      0.00694876914869 85       3.70533885048 4.060179 0                        
52               1                PSYS1271435      0.0829105035954 65       15.0552279607 2.35195391178 0                        
53               1                PSYS1271815      0.163084798673 65       24.2761591681 2.61227775945 0                        
54               1                PSYS1289516      0.0511916547623 85       19.5886260375 1.93485277891 0                        
55               1                PSYS1289519      0.297217407652 85       21.2299438793 2.56162574556 0                        
56               1                PSYS1289518      0.0611216937122 85       22.6889184955 2.20463959376 0                        
57               1                PSYS1289771      0.348923366612 10       42.2832572608 2.12035773695 0                        
58               1                PSYS1289510      0.0523623460906 85       13.7140542973 2.04224507014 0                        
59               1                PSYS1289513      0.0465781558234 85       16.3966480667 3.11602902412 0                        
60               1                PSYS1271420      0.045604117019 85       23.9189986391 1.99378065268 0                        
61               1                PSYS1271415      0.0362232682446 85       17.8995912552 2.41577339172 0                        
62               1                PSYS1289515      0.317198532667 85       31.3351282167 2.26149654388 0                        
63               1                PSYS1289512      0.0929575445726 85       16.422493956 2.27957487106 0                        
64               1                PSYS1272027      0.052663614685 85       25.6084913958 0.824352780978 0                        
65               1                PSYS1272025      0.0523029362311 85       25.43304158 2.16098952293 0                        
66               1                PSYS1271416      0.239861016962 85       28.1038979377 2.72455310822 0                        
67               1                PSYS1271414      0.321057957371 85       29.2349114469 1.54356992787 0                        
68               1                PSYS1272411      0.0129993662826 85       8.64189424541 0        0                        
69               1                PSYS1289520      0.0386008165188 85       18.5373553291 0.854358017445 0                        
70               1                PSYS1271411      0.0588296285997 65       14.082054759 0.254780769348 0                        
71               1                PSYS1271410      0.0522103061096 85       16.3687881527 1.23652917147 0                        
72               1                PSYS1272407      0.0462327104868 85       14.2397678994 0.540247380733 0                        
73               1                PSYS1271413      0.0426671634095 85       22.5058848883 0        0                        
74               1                PSYS1271412      2.1117966256 65       128.481047055 2.28346185842 0                        
75               1                PSYS1272410      0.0155350393202 85       8.72856682569 0        0                        
76               1                PSYS1272395      1.29984300136 65       66.2369473691 2.43622275697 0                        
77               1                PSYS1272029      0.0512163478877 85       24.7512757364 0        0                        
78               1                PSYS1272030      0.024007448138 85       15.0250050188 0        0                        
79               1                PSYS1272394      0.0121294074001 85       7.38793836575 0        0                        
80               1                PSYS1272409      0.0131388132449 85       9.35241285946 0        0                        
81               1                PSYS1272406      0.0814106423208 65       13.8816236705 0        0                        
82               1                PSYS1271424      0.0134742691325 85       7.56808752322 6.13908863068 0                        
83               1                PSYS1271421      0.0919993922448 85       26.6387320796 2.03166735172 0                        
84               1                PSYS1289511      0.0358465873657 85       14.4339744952 1.78274059296 0                        
85               1                PSYS1271425      0.155937966783 10       27.1758829791 4.50944554806 0                        
86               1                PSYS1271423      0.0651725425206 85       28.3473690115 7.01482257843 0                        
87               1                PSYS1272712      0.0316330099624 85       18.2077348623 0.382171154022 0                        
88               1                PSYS1271417      0.0273137628205 85       17.1230707731 2.16098952293 0                        
89               1                PSYS1271422      0.0568586832237 85       26.0294538922 4.17149603367 0                        
90               1                PSYS1271419      0.0334952550761 85       19.2796486716 0.922610759735 0                        
91               1                PSYS1271427      0.0114732645403 85       6.42404883588 9.12646865845 0                        
92               1                PSYS1271827      0.00967070262249 85       4.94573750497 7.7476849556 0                        
93               1                PSYS1271826      0.47405579414 85       37.0873001067 5.99347654537 0                        
94               1                PSYS1272711      0.0500853435786 85       26.0526448513 4.61997063955 0                        
95               1                PSYS1271833      0.00210941376853 85       2.68463705936 7.324278 0                        
96               1                PSYS1271831      0.0440215565105 85       19.1475406489 3.14847826958 0                        
97               1                PSYS1271830      0.0079162434311 85       4.02706494025 2.16098952293 0                        
98               1                PSYS1271834      0.0355640369589 85       16.280884305 7.9307829539 0                        
99               1                PSYS1271426      0.0623727426863 85       26.0151722731 6.75845591227 0                        
100              1                PSYS1271428      0.275469457767 10       29.2592597338 3.19759528339 0                        
101              1                PSYS1272028      0.0316396670794 85       17.5734826031 1.08049476147 0                        
102              1                PSYS1272714      0.0419898848335 85       24.3603158144 0        0                        
103              1                PSYS1272399      0.151034884573 85       18.2203311251 2.35194551945 0                        
104              1                PSYS1271418      0.0942387825736 85       20.8599400764 2.40845127106 0                        
105              1                PSYS1272400      0.419332181373 65       22.8336258114 3.62523992245 0                        
106              1                PSYS1272392      0.0155117365028 85       9.4950850866 1.298175 0                        
107              1                PSYS1272393      0.0301205300992 85       15.8878934346 0        0                        
108              1                PSYS1272398      0.051987279881 85       13.7686975874 1.45830136538 0                        
109              1                PSYS1272405      0.338589816328 85       40.0752775459 1.33637457371 0                        
110              1                PSYS1272713      0.0288477221246 85       22.4242069309 3.62807136774 0                        
111              1                PSYS1272026      0.0394379140602 85       20.2820264969 2.98863708973 0                        
112              1                PSYS1272715      0.0355040921972 85       20.5975976481 2.65651965141 0                        
113              1                PSYS1272402      0.806403676414 85       48.4716828225 4.09244101842 0                        
114              1                PSYS1271832      0.0635481336636 85       13.3328294088 6.71777331829 0                        
115              1                PSYS1272401      0.43878546734 65       24.305966899 4.37475866318 0                        
116              1                PSYS1272408      0.0566763213066 85       12.2383441463 0        0                        

[SUBAREAS]
;;Subcatchment   N-Imperv   N-Perv     S-Imperv   S-Perv     PctZero    RouteTo    PctRouted 
;;-------------- ---------- ---------- ---------- ---------- ---------- ---------- ----------
1                0.012      0.15       2          3.5        25         OUTLET    
2                0.012      0.15       2          3.5        25         OUTLET    
3                0.012      0.15       2          3.5        25         OUTLET    
4                0.012      0.15       2          3.5        25         OUTLET    
5                0.012      0.15       2          3.5        25         OUTLET    
6                0.012      0.15       2          3.5        25         OUTLET    
7                0.012      0.15       2          3.5        25         OUTLET    
8                0.012      0.15       2          3.5        25         OUTLET    
9                0.012      0.15       2          3.5        25         OUTLET    
10               0.012      0.15       2          3.5        25         OUTLET    
11               0.012      0.15       2          3.5        25         OUTLET    
12               0.012      0.15       2          3.5        25         OUTLET    
13               0.012      0.15       2          3.5        25         OUTLET    
14               0.012      0.15       2          3.5        25         OUTLET    
15               0.012      0.15       2          3.5        25         OUTLET    
16               0.012      0.15       2          3.5        25         OUTLET    
17               0.012      0.15       2          3.5        25         OUTLET    
18               0.012      0.15       2          3.5        25         OUTLET    
19               0.012      0.15       2          3.5        25         OUTLET    
20               0.012      0.15       2          3.5        25         OUTLET    
21               0.012      0.15       2          3.5        25         OUTLET    
22               0.012      0.15       2          3.5        25         OUTLET    
23               0.012      0.15       2          3.5        25         OUTLET    
24               0.012      0.15       2          3.5        25         OUTLET    
25               0.012      0.15       2          3.5        25         OUTLET    
26               0.012      0.15       2          3.5        25         OUTLET    
27               0.012      0.15       2          3.5        25         OUTLET    
28               0.012      0.15       2          3.5        25         OUTLET    
29               0.012      0.15       2          3.5        25         OUTLET    
30               0.012      0.15       2          3.5        25         OUTLET    
31               0.012      0.15       2          3.5        25         OUTLET    
32               0.012      0.15       2          3.5        25         OUTLET    
33               0.012      0.15       2          3.5        25         OUTLET    
34               0.012      0.15       2          3.5        25         OUTLET    
35               0.012      0.15       2          3.5        25         OUTLET    
36               0.012      0.15       2          3.5        25         OUTLET    
37               0.012      0.15       2          3.5        25         OUTLET    
38               0.012      0.15       2          3.5        25         OUTLET    
39               0.012      0.15       2          3.5        25         OUTLET    
40               0.012      0.15       2          3.5        25         OUTLET    
41               0.012      0.15       2          3.5        25         OUTLET    
42               0.012      0.15       2          3.5        25         OUTLET    
43               0.012      0.15       2          3.5        25         OUTLET    
44               0.012      0.15       2          3.5        25         OUTLET    
45               0.012      0.15       2          3.5        25         OUTLET    
46               0.012      0.15       2          3.5        25         OUTLET    
47               0.012      0.15       2          3.5        25         OUTLET    
48               0.012      0.15       2          3.5        25         OUTLET    
49               0.012      0.15       2          3.5        25         OUTLET    
50               0.012      0.15       2          3.5        25         OUTLET    
51               0.012      0.15       2          3.5        25         OUTLET    
52               0.012      0.15       2          3.5        25         OUTLET    
53               0.012      0.15       2          3.5        25         OUTLET    
54               0.012      0.15       2          3.5        25         OUTLET    
55               0.012      0.15       2          3.5        25         OUTLET    
56               0.012      0.15       2          3.5        25         OUTLET    
57               0.012      0.15       2          3.5        25         OUTLET    
58               0.012      0.15       2          3.5        25         OUTLET    
59               0.012      0.15       2          3.5        25         OUTLET    
60               0.012      0.15       2          3.5        25         OUTLET    
61               0.012      0.15       2          3.5        25         OUTLET    
62               0.012      0.15       2          3.5        25         OUTLET    
63               0.012      0.15       2          3.5        25         OUTLET    
64               0.012      0.15       2          3.5        25         OUTLET    
65               0.012      0.15       2          3.5        25         OUTLET    
66               0.012      0.15       2          3.5        25         OUTLET    
67               0.012      0.15       2          3.5        25         OUTLET    
68               0.012      0.15       2          3.5        25         OUTLET    
69               0.012      0.15       2          3.5        25         OUTLET    
70               0.012      0.15       2          3.5        25         OUTLET    
71               0.012      0.15       2          3.5        25         OUTLET    
72               0.012      0.15       2          3.5        25         OUTLET    
73               0.012      0.15       2          3.5        25         OUTLET    
74               0.012      0.15       2          3.5        25         OUTLET    
75               0.012      0.15       2          3.5        25         OUTLET    
76               0.012      0.15       2          3.5        25         OUTLET    
77               0.012      0.15       2          3.5        25         OUTLET    
78               0.012      0.15       2          3.5        25         OUTLET    
79               0.012      0.15       2          3.5        25         OUTLET    
80               0.012      0.15       2          3.5        25         OUTLET    
81               0.012      0.15       2          3.5        25         OUTLET    
82               0.012      0.15       2          3.5        25         OUTLET    
83               0.012      0.15       2          3.5        25         OUTLET    
84               0.012      0.15       2          3.5        25         OUTLET    
85               0.012      0.15       2          3.5        25         OUTLET    
86               0.012      0.15       2          3.5        25         OUTLET    
87               0.012      0.15       2          3.5        25         OUTLET    
88               0.012      0.15       2          3.5        25         OUTLET    
89               0.012      0.15       2          3.5        25         OUTLET    
90               0.012      0.15       2          3.5        25         OUTLET    
91               0.012      0.15       2          3.5        25         OUTLET    
92               0.012      0.15       2          3.5        25         OUTLET    
93               0.012      0.15       2          3.5        25         OUTLET    
94               0.012      0.15       2          3.5        25         OUTLET    
95               0.012      0.15       2          3.5        25         OUTLET    
96               0.012      0.15       2          3.5        25         OUTLET    
97               0.012      0.15       2          3.5        25         OUTLET    
98               0.012      0.15       2          3.5        25         OUTLET    
99               0.012      0.15       2          3.5        25         OUTLET    
100              0.012      0.15       2          3.5        25         OUTLET    
101              0.012      0.15       2          3.5        25         OUTLET    
102              0.012      0.15       2          3.5        25         OUTLET    
103              0.012      0.15       2          3.5        25         OUTLET    
104              0.012      0.15       2          3.5        25         OUTLET    
105              0.012      0.15       2          3.5        25         OUTLET    
106              0.012      0.15       2          3.5        25         OUTLET    
107              0.012      0.15       2          3.5        25         OUTLET    
108              0.012      0.15       2          3.5        25         OUTLET    
109              0.012      0.15       2          3.5        25         OUTLET    
110              0.012      0.15       2          3.5        25         OUTLET    
111              0.012      0.15       2          3.5        25         OUTLET    
112              0.012      0.15       2          3.5        25         OUTLET    
113              0.012      0.15       2          3.5        25         OUTLET    
114              0.012      0.15       2          3.5        25         OUTLET    
115              0.012      0.15       2          3.5        25         OUTLET    
116              0.012      0.15       2          3.5        25         OUTLET    

[INFILTRATION]
;;Subcatchment   Param1     Param2     Param3     Param4     Param5    
;;-------------- ---------- ---------- ---------- ---------- ----------
1                76.2       3.8        4          7          0         
2                76.2       3.8        4          7          0         
3                76.2       3.8        4          7          0         
4                76.2       3.8        4          7          0         
5                76.2       3.8        4          7          0         
6                76.2       3.8        4          7          0         
7                76.2       3.8        4          7          0         
8                76.2       3.8        4          7          0         
9                76.2       3.8        4          7          0         
10               76.2       3.8        4          7          0         
11               76.2       3.8        4          7          0         
12               76.2       3.8        4          7          0         
13               76.2       3.8        4          7          0         
14               76.2       3.8        4          7          0         
15               76.2       3.8        4          7          0         
16               76.2       3.8        4          7          0         
17               76.2       3.8        4          7          0         
18               76.2       3.8        4          7          0         
19               76.2       3.8        4          7          0         
20               76.2       3.8        4          7          0         
21               76.2       3.8        4          7          0         
22               76.2       3.8        4          7          0         
23               76.2       3.8        4          7          0         
24               76.2       3.8        4          7          0         
25               76.2       3.8        4          7          0         
26               76.2       3.8        4          7          0         
27               76.2       3.8        4          7          0         
28               76.2       3.8        4          7          0         
29               76.2       3.8        4          7          0         
30               76.2       3.8        4          7          0         
31               76.2       3.8        4          7          0         
32               76.2       3.8        4          7          0         
33               76.2       3.8        4          7          0         
34               76.2       3.8        4          7          0         
35               76.2       3.8        4          7          0         
36               76.2       3.8        4          7          0         
37               76.2       3.8        4          7          0         
38               76.2       3.8        4          7          0         
39               76.2       3.8        4          7          0         
40               76.2       3.8        4          7          0         
41               76.2       3.8        4          7          0         
42               76.2       3.8        4          7          0         
43               76.2       3.8        4          7          0         
44               76.2       3.8        4          7          0         
45               76.2       3.8        4          7          0         
46               76.2       3.8        4          7          0         
47               76.2       3.8        4          7          0         